data_image0
_chemical_formula_structural       AlFAlFOF3
_chemical_formula_sum              "Al2 F5 O1"
_cell_length_a       3.6157555588681016
_cell_length_b       5.054591195888025
_cell_length_c       5.741799354553223
_cell_angle_alpha    106.40920871374456
_cell_angle_beta     90.04163250653761
_cell_angle_gamma    111.28311630312959

_space_group_name_H-M_alt    "P 1"
_space_group_IT_number       1

loop_
  _space_group_symop_operation_xyz
  'x, y, z'

loop_
  _atom_site_type_symbol
  _atom_site_label
  _atom_site_symmetry_multiplicity
  _atom_site_fract_x
  _atom_site_fract_y
  _atom_site_fract_z
  _atom_site_occupancy
  Al  Al1       1.0  0.37358191609382624  0.9719261527061461  0.1763758808374404  1.0000
  F   F1        1.0  0.239787608385086  0.7039350867271422  0.36753562092781067  1.0000
  Al  Al2       1.0  0.3743134737014771  0.9719362854957581  0.6761031746864318  1.0000
  F   F2        1.0  0.5072182416915894  0.2396586090326309  0.5000150203704834  1.0000
  O   O1        1.0  0.87324857711792  0.9713883399963378  0.17644362151622764  1.0000
  F   F3        1.0  0.24004323780536652  0.7038195133209227  0.8522379994392395  1.0000
  F   F4        1.0  0.5065045952796936  0.23924176394939423  0.9851366877555847  1.0000
  F   F5        1.0  0.8740572929382325  0.9719947576522827  0.6766161322593689  1.0000
