data_image0
_chemical_formula_structural       FNaNbF5
_chemical_formula_sum              "F6 Na1 Nb1"
_cell_length_a       5.1138504066392265
_cell_length_b       5.408080311470766
_cell_length_c       5.412404537200928
_cell_angle_alpha    120.01121981962068
_cell_angle_beta     89.98070721881889
_cell_angle_gamma    89.94965717868968

_space_group_name_H-M_alt    "P 1"
_space_group_IT_number       1

loop_
  _space_group_symop_operation_xyz
  'x, y, z'

loop_
  _atom_site_type_symbol
  _atom_site_label
  _atom_site_symmetry_multiplicity
  _atom_site_fract_x
  _atom_site_fract_y
  _atom_site_fract_z
  _atom_site_occupancy
  F   F1        1.0  0.6704984903335571  0.7207636237144469  0.11582665145397182  1.0000
  Na  Na1       1.0  0.3912881016731262  0.40631696581840515  0.1691059172153473  1.0000
  Nb  Nb1       1.0  0.8912005424499512  0.7398531436920166  0.8353983759880066  1.0000
  F   F2        1.0  0.11322036385536194  0.4586662352085113  0.8535630702972412  1.0000
  F   F3        1.0  0.6700820922851562  0.03835895657539368  0.853706955909729  1.0000
  F   F4        1.0  0.11234159022569656  0.7220124602317809  0.5363085269927979  1.0000
  F   F5        1.0  0.11227747052907944  0.04000213369727135  0.11732430756092072  1.0000
  F   F6        1.0  0.6698866486549377  0.45810607075691223  0.5356847643852234  1.0000
